opendss_networks/LV26_205bus/Switches.dss
new line.Switch_408_CLOSED lineCode=ughv_400al_triplex_ug_4w_bundled bus1=B3053 bus2=B2042 length=0.00100000000000 units=km switch=y phases=4
! new line.Switch_808_OPEN lineCode=ughv_400al_triplex_ug_4w_bundled bus1=B3096 bus2=B1945 length=0.00100000000000 units=km switch=y phases=4
new line.Switch_1286_CLOSED lineCode=ughv_400al_triplex_ug_4w_bundled bus1=B3131 bus2=B1517 length=0.00100000000000 units=km switch=y phases=4
new line.Switch_1721_CLOSED lineCode=ughv_400al_triplex_ug_4w_bundled bus1=B3239 bus2=B3172 length=0.00100000000000 units=km switch=y phases=4
new line.Switch_1839_CLOSED lineCode=ughv_400al_triplex_ug_4w_bundled bus1=B1317 bus2=B2338 length=0.00100000000000 units=km switch=y phases=4
new line.Switch_2422_CLOSED lineCode=ughv_400al_triplex_ug_4w_bundled bus1=B1042 bus2=B412 length=0.00100000000000 units=km switch=y phases=4
! new line.Switch_2448_OPEN lineCode=ughv_400al_triplex_ug_4w_bundled bus1=B1674 bus2=B2809 length=0.00100000000000 units=km switch=y phases=4
new line.Switch_2477_CLOSED lineCode=ughv_400al_triplex_ug_4w_bundled bus1=B1588 bus2=B763 length=0.00100000000000 units=km switch=y phases=4
new line.Switch_3856_CLOSED lineCode=ughv_400al_triplex_ug_4w_bundled bus1=B3249 bus2=B1624 length=0.00100000000000 units=km switch=y phases=4
! new line.Switch_4411_OPEN lineCode=ughv_400al_triplex_ug_4w_bundled bus1=B1055 bus2=B2010 length=0.00100000000000 units=km switch=y phases=4
! new line.Switch_4543_OPEN lineCode=ughv_400al_triplex_ug_4w_bundled bus1=B84 bus2=B3080 length=0.00100000000000 units=km switch=y phases=4
new line.Switch_4657_CLOSED lineCode=ughv_400al_triplex_ug_4w_bundled bus1=B925 bus2=B2365 length=0.00100000000000 units=km switch=y phases=4
